# ===============================================
#
# A file that lists the array dimensions of
# the heads file information that outputs
# from MODFLOW.
#
# This file is the place to enter model
# specific information.
#
# The parameter names and their format are:
# set NumberOfRows: <enter integer number>
# set NumberOfCol: <enter integer number>
# set NumberOfLay: <enter integer number>
# set NumberOfStressPeriods: <enter integer number>
# set NumberOfTimeSteps: <enter integer number>
# set NumberOfCellByCell: <enter integer number>
# set NumberOfLakes: <enter integer number>
# set NumberOfLakeCells: <enter integer number>
# set LakeHeadsLayer: <enter integer number>
# ===============================================

set NumberOfRows: 603
set NumberOfCol: 740
set NumberOfLay: 11
set NumberOfStressPeriods: 133
set NumberOfTimeSteps: 1
set NumberOfCellByCell: 12
set NumberOfLakes: 492
set NumberOfLakeCells: 18367
set LakeHeadsLayer: 3
